
**** 12/30/20 11:33:54 ******* PSpice Lite (March 2016) ******* ID# 10813 ****

 ** Profile: "SCHEMATIC1-test2"  [ C:\USERS\ABDOG\DESKTOP\1\ALI-PSpiceFiles\SCHEMATIC1\test2.sim ] 


 ****     CIRCUIT DESCRIPTION


******************************************************************************




** Creating circuit file "test2.cir" 
** WARNING: THIS AUTOMATICALLY GENERATED FILE MAY BE OVERWRITTEN BY SUBSEQUENT SIMULATIONS

*Libraries: 
* Profile Libraries :
* Local Libraries :
* From [PSPICE NETLIST] section of C:\Users\abdog\AppData\Roaming\SPB_Data\cdssetup\OrCAD_PSpice\17.2.0\PSpice.ini file:
.lib "nomd.lib" 

*Analysis directives: 
.TRAN  0 0.001ns 0 
.OPTIONS ADVCONV
.PROBE64 V(alias(*)) I(alias(*)) W(alias(*)) D(alias(*)) NOISE(alias(*)) 
.INC "..\SCHEMATIC1.net" 



**** INCLUDING SCHEMATIC1.net ****
* source ALI
R_R1         N00075 N00109  0.05k  
R_R2         0 N00109  2k  
Q_Q1         N00817 N00109 N00539 Q2N2222
Q_Q2         N00817 0 N00109 Q2N2222
R_R3         N003221 N00109  1k  
V_VEE         N003221 0 -8Vdc
V_-VCC         N00539 0 0Vdc
C_C3         0 N00539  1u  
R_R4         N00817 N01049  2.2k  
V_+VCC         N01049 0 5Vdc
C_C4         N00817 N01164  1u  
R_R5         0 N01164  2k  
V_V1         N00075 0  AC 10
+SIN 5 10 10 0 0 0

**** RESUMING test2.cir ****
.END

**** 12/30/20 11:33:54 ******* PSpice Lite (March 2016) ******* ID# 10813 ****

 ** Profile: "SCHEMATIC1-test2"  [ C:\USERS\ABDOG\DESKTOP\1\ALI-PSpiceFiles\SCHEMATIC1\test2.sim ] 


 ****     BJT MODEL PARAMETERS


******************************************************************************




               Q2N2222         
               NPN             
       LEVEL    1            
          IS   14.340000E-15 
          BF  255.9          
          NF    1            
         VAF   74.03         
         IKF     .2847       
         ISE   14.340000E-15 
          NE    1.307        
          BR    6.092        
          NR    1            
         ISS    0            
          RB   10            
          RE    0            
          RC    1            
         CJE   22.010000E-12 
         VJE     .75         
         MJE     .377        
         CJC    7.306000E-12 
         VJC     .75         
         MJC     .3416       
        XCJC    1            
         CJS    0            
         VJS     .75         
          TF  411.100000E-12 
         XTF    3            
         VTF    1.7          
         ITF     .6          
          TR   46.910000E-09 
         XTB    1.5          
          KF    0            
          AF    1            
          CN    2.42         
           D     .87         


**** 12/30/20 11:33:54 ******* PSpice Lite (March 2016) ******* ID# 10813 ****

 ** Profile: "SCHEMATIC1-test2"  [ C:\USERS\ABDOG\DESKTOP\1\ALI-PSpiceFiles\SCHEMATIC1\test2.sim ] 


 ****     INITIAL TRANSIENT SOLUTION       TEMPERATURE =   27.000 DEG C


******************************************************************************



 NODE   VOLTAGE     NODE   VOLTAGE     NODE   VOLTAGE     NODE   VOLTAGE


(N00075)    5.0000 (N00109)    1.4201 (N00539)    0.0000 (N00817)     .0096     

(N01049)    5.0000 (N01164)    0.0000 (N003221)   -8.0000                   




    VOLTAGE SOURCE CURRENTS
    NAME         CURRENT

    V_VEE        9.420E-03
    V_-VCC       6.374E-02
    V_+VCC      -2.268E-03
    V_V1        -7.160E-02

    TOTAL POWER DISSIPATION   4.45E-01  WATTS


ERROR(ORPSIM-15138): Convergence problem in Transient Analysis at Time =  187.5E-18.
         Time step =  186.3E-27, minimum allowable step size =  1.000E-24

  These voltages failed to converge:

    V(N00109)                 =     1.403V  \     1.420V
    V(N00817)                 =   -11.80mV  \     9.56mV
    V(N01164)                 =   -21.36mV  \   -65.63nV

  These supply currents failed to converge:

    I(V_VEE)                  =    9.403mA  \    9.420mA
    I(V_-VCC)                 =     61.24A  \    63.74mA
    I(V_+VCC)                 =   -2.278mA  \   -2.268mA
    I(V_V1)                   =   -71.94mA  \   -71.60mA

  These devices failed to converge:
    Q_Q1      Q_Q2      



  Last node voltages tried were:

 NODE   VOLTAGE     NODE   VOLTAGE     NODE   VOLTAGE     NODE   VOLTAGE


(N00075)    5.0000 (N00109)    1.4032 (N00539)    0.0000 (N00817)    -.0118     

(N01049)    5.0000 (N01164)    -.0214 (N003221)   -8.0000                   


**** Interrupt ****
